      95

  O         3.0269711417        5.2632110464       -5.2606614849
  O         5.6877069764       -1.8030891656       -2.3029434822
  O         3.7287671244        3.4901566901       -1.1882580938
  O        -0.2859512701        1.5624252341        0.2222868905
  O        -0.2590974533       -3.7306604471        7.1873244449
  O        11.3186994340       -2.1311578099        8.5740094098
  O         6.1840924520        2.7918369591       -1.9713119606
  O         5.6976608345        1.1451732769       -4.5651624065
  O         0.6731806558        5.0033216144       12.9032677283
  O        -6.3456515667        0.1063943606       -1.3127987886
  O         2.2031997353        6.1771170481        0.6443626691
  O         3.2448404074       -0.0247900620        5.1431301413
  O        -2.9820012789        4.5623036251       -3.9610645840
  O        -1.6869848946       -5.5139530273      -10.7419373537
  O        -4.2810554531        4.4416741985       -6.3666035288
  O        -6.6914626089        0.2896700641        2.4976725032
  O        -7.5766664089        1.9691738618       10.2396858191
  O         6.8272771172       -7.8425770800        3.0775080967
  O         0.8330633566       10.9721808423        5.7415790502
  O       -12.1935306697       -0.1567336696        1.7257615244
  O       -10.7412373112      -10.1918395680       -2.3849571859
  O         0.3614791231       -0.2320070372       12.5429515611
  O         3.5689947275       -2.6446456062        6.4714778594
  O         4.8841317012       -3.9061577503       -0.3021031860
  O         6.8297949787        0.4296677199       -0.8994507717
  O        -8.4197085698       -6.0363119539       -3.3845729682
  O        -4.2520155477       -1.6167978319        3.6293533234
  O         6.9782072601       -4.0638401436        1.4978689599
  O         7.8958926170        7.3874174463        5.7423694782
  O        -1.1960957677       -2.8070953238        3.1366029232
  O        -4.8884259426       -1.0132298597        0.5062543538
  O         9.6930063433       -7.5569850030       -6.2138945516
  H         2.2214268585        5.4747547090       -5.7309403856
  H         3.3180619319        5.9789903450       -4.6866564881
  H         6.5025077484       -2.2061232933       -2.7011053809
  H         5.9224683929       -1.0925486030       -1.6686832010
  H         3.3345374511        3.0284542704       -0.4419356146
  H         4.0896000540        4.3202292609       -0.7697944160
  H        -0.8479647517       -8.7045872254        0.8868415469
  H        -0.7704593698        2.3094549837       -0.1825792132
  H         0.3588215487       -4.3814925636        6.8057383756
  H         0.4377602712       -3.0973207183        7.5284465938
  H        11.8020748847       -1.2523843002        8.4907650112
  H        11.6440541940       -2.6712836434        9.3432952179
  H         5.2433023102        3.1152963074       -1.7381680307
  H         6.4224159004        1.9714354290       -1.4484525729
  H         4.9484869475        0.5968714664       -4.4771952947
  H         0.2537215986        4.1216637641       13.0628770601
  H         0.0596786143        5.7015586009       13.1072334455
  H        -6.1385618302        0.5037797385       -2.2580383776
  H        -6.7168897654        0.8464980496       -0.8040757132
  H         3.1386804464        6.1143947395        0.8170639601
  H         1.6889905608        5.5804340356        1.2011662817
  H         3.3919098881       -0.9093954403        5.4473776074
  H         2.3516789182        0.2558529304        5.3669835360
  H        -2.9988950209        5.4598021289       -3.7133062958
  H        -3.3075776092        3.9488012942       -3.3072498472
  H        -2.2689105102       -5.8318177923      -11.3785964496
  H        -1.1136248113       -4.8703605997       -1.4048290877
  H        -5.2517364305        4.5558515004       -6.2974356279
  H        -3.8765469478        4.6132564342       -5.5146107503
  H        -6.1526095894       -0.4068443025        2.0182480744
  H        -6.4566517998        0.1384807571       -6.3764344865
  H        -7.2278796289        1.4527668440       11.0124463408
  H        -8.5010537993        1.5426045532       10.0679447999
  H         6.4464619516       -8.2186262210        3.9522861729
  H         6.4447597892       -6.9146005878        2.9663429348
  H         1.1841425406       11.7984964556        6.1357621572
  H         0.2437930251       11.2305360821       -4.8829631245
  H        -2.5361945931        0.6868294847        2.2075921066
  H       -11.4904422197       -0.8084323373        1.9126067148
  H       -10.1946643138       -9.5663921713       -2.9261856441
  H       -10.0211624021      -10.7259149047       -1.9932615111
  H        -0.0657799125       -1.0865715818       12.6319328733
  H         1.3659256747       -0.2543600419       12.4823562978
  H         2.7968914399       -2.6446080683        7.1081984312
  H         4.4104597688       -2.5838921660        6.9638974284
  H         5.6255597826       -3.9506765790        0.2814471627
  H         5.0472434527      -13.0038119953       -0.8802375635
  H         7.7453904702        0.3327923993       -1.2722960923
  H         5.7571751074        1.6521029288       -3.6781875223
  H        -7.8495784903       -5.6924125899       -4.1319237502
  H        -7.7740952333        3.7319816246       -2.6504324711
  H         5.8782520080       -0.8382902370        3.1555081492
  H        -3.6516829625       -1.8250777297        4.3219244658
  H         7.5083618795       -4.6010093133        0.8552976735
  H         6.4355701873       -4.5924735618        2.1003360100
  H         8.0956234755        8.2764973881        6.1718564108
  H         8.4804643497       16.5276712248        6.2553193144
  H        -1.9333189867       -3.3996227513        2.7463420083
  H        -1.5311491290       -2.5905119007        4.0274244633
  H        -2.8922598076        0.1001637925        0.0537246306
  H        -5.2403426099       -0.3421610844       -9.9497716126
  H         8.7150744339       -7.5052866795        3.5435316024
  H        10.0848359289       -8.2020333874        2.9823674210
